this is file for main branch

new line....
new line ...